%chk=mol1-Cl_NBO_NBO.chk
%mem=24GB
%nprocshared=12
# wb97xd/6-311g(d) pop=(nbo6read,savenbos) scrf=(solvent=toluene,smd)

mol1-Cl_NBO_NBO

0 1
C  -0.899369  -1.142782  0.158198
C  -2.279699  -1.190672  0.167956
C  -2.972209  -0.000022  0.000002
C  -2.279648  1.190602  -0.167926
C  -0.899322  1.142654  -0.158133
N  -0.217268  -0.000077  0.000045
H  -0.311998  -2.046088  0.279644
H  -2.793923  -2.132938  0.302386
H  -2.79383  2.13289  -0.302372
H  -0.311911  2.045937  -0.279559
Cl  -4.704405  0.000012  -0.000034
Zn  1.81415  0.000001  0.000009
Cl  2.625527  -2.044697  -0.100743
Cl  2.625321  2.044802  0.100702

$nbo bndidx $end

