18
mol6-Br_NBO                                      Eopt  -2959.415429
Br     2.905512    -0.245927     0.000000
C     1.043825     0.158717     0.000000
C     0.648865     1.514687     0.000000
C    -0.683325     1.821761     0.000000
C    -1.671908     0.805493     0.000000
C    -3.058654     1.100220     0.000000
C    -3.985840     0.094125     0.000000
C    -3.571901    -1.257590     0.000000
C    -2.240978    -1.574268     0.000000
C    -1.256489    -0.553184     0.000000
C     0.129490    -0.855316     0.000000
H     1.395998     2.299245     0.000000
H    -0.995862     2.861461     0.000000
H    -3.373990     2.139316     0.000000
H    -5.044657     0.330372     0.000001
H    -4.317004    -2.046201     0.000000
H    -1.921420    -2.611942     0.000000
H     0.445513    -1.892679     0.000000
