%chk=mol2-Br_NBO_NMR.chk
%mem=24GB
%nprocshared=12
# nmr=GIAO mpw1pw91/6-311+G(2d,p)

mol2-Br_NBO_NMR

0 1
Br  -2.090421  -0.262848  0.000353
C  -0.24316  0.211049  0.000391
C  0.113748  1.550998  0.005871
C  1.466242  1.873517  0.002227
C  2.430919  0.875815  -0.006582
C  2.067264  -0.472308  -0.010567
C  3.115428  -1.551206  0.008009
C  0.711598  -0.796828  -0.008337
H  -0.641094  2.328114  0.009971
H  1.764317  2.916654  0.002638
H  3.483018  1.143749  -0.012574
H  3.532701  -1.669117  1.014775
H  2.704055  -2.518172  -0.29551
H  3.945507  -1.310552  -0.663777
H  0.404011  -1.837215  -0.013935

