%chk=am52_a_NMR.chk
%mem=24GB
%nprocshared=12
# nmr=GIAO mpw1pw91/6-311+G(2d,p)

am52_a_NMR

0 1
O  2.339059  0.032321  0.031829
C  1.120964  0.0275  0.008216
N  0.387306  1.167518  -0.002824
C  -1.058637  1.252551  -0.14627
C  -1.695192  -0.043697  0.316851
N  -1.036047  -1.135044  -0.381602
C  0.341333  -1.276186  0.065888
H  0.926091  2.016727  -0.081282
H  -1.325574  1.434961  -1.193271
H  -1.421525  2.091419  0.453252
H  -1.60792  -0.126253  1.414655
H  -2.756811  -0.036234  0.061478
H  0.425168  -1.63172  1.108123
H  0.8698  -1.991643  -0.565626
H  -1.531322  -2.004165  -0.229093

